Version 4
SHEET 1 1048 680
WIRE 80 16 -416 16
WIRE 208 16 160 16
WIRE 640 16 384 16
WIRE 208 48 208 16
WIRE 208 48 176 48
WIRE -64 64 -352 64
WIRE -352 80 -352 64
WIRE 208 80 208 48
WIRE 240 80 208 80
WIRE -64 112 -64 64
WIRE 384 112 384 96
WIRE 384 112 288 112
WIRE 176 128 176 48
WIRE 176 128 -32 128
WIRE -160 144 -192 144
WIRE -96 144 -160 144
WIRE 384 144 384 112
WIRE 640 144 640 16
WIRE -16 160 -16 144
WIRE -16 160 -32 160
WIRE 112 160 -16 160
WIRE 128 160 112 160
WIRE 288 160 288 112
WIRE 288 160 208 160
WIRE -352 176 -352 160
WIRE -320 176 -352 176
WIRE -320 192 -320 176
WIRE 288 192 288 160
WIRE 320 192 288 192
WIRE -352 208 -352 176
WIRE 240 208 240 80
WIRE 240 208 208 208
WIRE 208 224 208 208
WIRE 640 256 640 224
WIRE -416 288 -416 16
WIRE -352 288 -416 288
WIRE -64 288 -64 176
WIRE -64 288 -352 288
WIRE -160 304 -160 144
WIRE 0 304 -160 304
WIRE 112 304 112 160
WIRE 112 304 80 304
WIRE 208 336 208 304
WIRE 384 400 384 240
FLAG 384 400 0
FLAG 640 256 0
FLAG -320 192 0
FLAG -272 144 COM
IOPIN -272 144 In
FLAG 208 336 0
SYMBOL npn 320 144 R0
SYMATTR InstName Q1
SYMATTR Value 2N2222
SYMBOL voltage 640 128 R0
WINDOW 123 0 0 Left 0
WINDOW 39 0 0 Left 0
SYMATTR InstName V1
SYMATTR Value 5
SYMBOL res 368 0 R0
SYMATTR InstName R1
SYMATTR Value 3300
SYMBOL Opamps\\AD8675 -64 208 R180
SYMATTR InstName U1
SYMBOL voltage -352 304 R180
WINDOW 123 0 0 Left 0
WINDOW 39 0 0 Left 0
SYMATTR InstName V2
SYMATTR Value 5
SYMBOL voltage -352 64 R0
WINDOW 123 0 0 Left 0
WINDOW 39 0 0 Left 0
SYMATTR InstName V3
SYMATTR Value 0
SYMBOL res -176 128 R90
WINDOW 0 0 56 VBottom 2
WINDOW 3 32 56 VTop 2
SYMATTR InstName R6
SYMATTR Value 1k
SYMBOL res 224 144 R90
WINDOW 0 0 56 VBottom 2
WINDOW 3 32 56 VTop 2
SYMATTR InstName R3
SYMATTR Value 1k
SYMBOL res 96 288 R90
WINDOW 0 0 56 VBottom 2
WINDOW 3 32 56 VTop 2
SYMATTR InstName R2
SYMATTR Value 20k
SYMBOL res 224 320 R180
WINDOW 0 36 76 Left 2
WINDOW 3 36 40 Left 2
SYMATTR InstName R4
SYMATTR Value 1k
SYMBOL res 64 32 R270
WINDOW 0 32 56 VTop 2
WINDOW 3 0 56 VBottom 2
SYMATTR InstName R5
SYMATTR Value 6k8
TEXT 800 200 Left 2 !.step temp 15 150 10
TEXT 568 376 Left 2 !.tran 0 1 0 10m
