Version 4
SHEET 1 1044 680
WIRE 640 16 384 16
WIRE -64 64 -352 64
WIRE -352 80 -352 64
WIRE -64 112 -64 64
WIRE 384 112 384 96
WIRE 384 112 288 112
WIRE 288 128 288 112
WIRE 288 128 -32 128
WIRE -176 144 -192 144
WIRE -96 144 -176 144
WIRE 384 144 384 112
WIRE 640 144 640 16
WIRE -16 160 -32 160
WIRE 96 160 64 160
WIRE -352 176 -352 160
WIRE -352 176 -432 176
WIRE -320 176 -352 176
WIRE -320 192 -320 176
WIRE 96 192 96 160
WIRE 96 192 64 192
WIRE 288 192 288 128
WIRE 320 192 288 192
WIRE -352 208 -352 176
WIRE -176 240 -176 144
WIRE -160 240 -176 240
WIRE -16 240 -80 240
WIRE 64 240 64 192
WIRE 64 240 -16 240
WIRE 96 240 96 192
WIRE 640 256 640 224
WIRE -16 272 -16 240
WIRE -64 288 -64 176
WIRE -64 288 -352 288
WIRE -432 384 -432 176
WIRE -16 384 -16 352
WIRE -16 384 -432 384
WIRE 384 400 384 240
WIRE -352 416 -352 288
WIRE 96 416 96 320
WIRE 96 416 -352 416
FLAG 384 400 0
FLAG 640 256 0
FLAG -320 192 0
FLAG -272 144 COM
IOPIN -272 144 In
SYMBOL npn 320 144 R0
SYMATTR InstName Q1
SYMATTR Value 2N2222
SYMBOL voltage 640 128 R0
WINDOW 123 0 0 Left 0
WINDOW 39 0 0 Left 0
SYMATTR InstName V1
SYMATTR Value 5
SYMBOL res 368 0 R0
SYMATTR InstName R1
SYMATTR Value 3300
SYMBOL Opamps\\AD8675 -64 208 R180
SYMATTR InstName U1
SYMBOL voltage -352 304 R180
WINDOW 123 0 0 Left 0
WINDOW 39 0 0 Left 0
SYMATTR InstName V2
SYMATTR Value 5
SYMBOL voltage -352 64 R0
WINDOW 123 0 0 Left 0
WINDOW 39 0 0 Left 0
SYMATTR InstName V3
SYMATTR Value 0
SYMBOL res -64 224 R90
WINDOW 0 0 56 VBottom 2
WINDOW 3 32 56 VTop 2
SYMATTR InstName R2
SYMATTR Value 15k
SYMBOL res -32 256 R0
SYMATTR InstName R3
SYMATTR Value 1k
SYMBOL res 80 224 R0
SYMATTR InstName R4
SYMATTR Value 10k
SYMBOL res 80 144 R90
WINDOW 0 0 56 VBottom 2
WINDOW 3 32 56 VTop 2
SYMATTR InstName R5
SYMATTR Value 1k
SYMBOL res -176 128 R90
WINDOW 0 0 56 VBottom 2
WINDOW 3 32 56 VTop 2
SYMATTR InstName R6
SYMATTR Value 1k
TEXT 800 200 Left 2 !.step temp 0 150 5
TEXT 568 376 Left 2 !.tran 0 1 0 10m
