Version 4
SHEET 1 2088 680
WIRE 816 80 704 80
WIRE 1120 80 1072 80
WIRE 176 96 48 96
WIRE 224 96 176 96
WIRE 336 96 288 96
WIRE 176 112 176 96
WIRE 336 112 336 96
WIRE 544 112 336 112
WIRE 48 128 48 96
WIRE 1120 144 1120 80
WIRE 1216 144 1120 144
WIRE 1328 144 1216 144
WIRE 176 192 176 176
WIRE 432 192 176 192
WIRE 1328 192 1328 144
WIRE 176 208 176 192
WIRE 544 240 544 112
WIRE 608 240 544 240
WIRE 704 240 704 80
WIRE 704 240 608 240
WIRE 784 240 704 240
WIRE 1120 240 1120 144
WIRE 1216 240 1216 144
WIRE 608 272 608 240
WIRE 704 272 704 240
WIRE 784 272 784 240
WIRE 48 288 48 208
WIRE 176 288 176 272
WIRE 176 288 48 288
WIRE 224 288 176 288
WIRE 336 288 336 112
WIRE 336 288 288 288
WIRE 432 368 432 192
WIRE 608 368 608 336
WIRE 608 368 432 368
WIRE 704 368 704 336
WIRE 704 368 608 368
WIRE 784 368 784 336
WIRE 784 368 704 368
WIRE 944 368 944 176
WIRE 944 368 784 368
WIRE 1120 368 1120 304
WIRE 1120 368 944 368
WIRE 1216 368 1216 304
WIRE 1216 368 1120 368
WIRE 1328 368 1328 272
WIRE 1328 368 1216 368
WIRE 432 384 432 368
FLAG 432 384 0
SYMBOL voltage 48 112 R0
WINDOW 3 -251 60 Left 2
WINDOW 123 -128 96 Left 2
WINDOW 39 -237 19 Left 2
SYMATTR Value SINE(0 {X} 50 0)
SYMATTR SpiceLine Rser=0 Cpar=0
SYMATTR InstName V1
SYMBOL schottky 192 176 R180
WINDOW 0 24 64 Left 2
WINDOW 3 -79 11 Left 2
SYMATTR InstName D1
SYMATTR Value 1N5819
SYMATTR Description Diode
SYMATTR Type diode
SYMBOL schottky 224 112 R270
WINDOW 0 32 32 VTop 2
WINDOW 3 0 32 VBottom 2
SYMATTR InstName D2
SYMATTR Value 1N5819
SYMATTR Description Diode
SYMATTR Type diode
SYMBOL schottky 224 304 R270
WINDOW 0 32 32 VTop 2
WINDOW 3 0 32 VBottom 2
SYMATTR InstName D3
SYMATTR Value 1N5819
SYMATTR Description Diode
SYMATTR Type diode
SYMBOL schottky 160 208 R0
SYMATTR InstName D4
SYMATTR Value 1N5819
SYMATTR Description Diode
SYMATTR Type diode
SYMBOL cap 592 272 R0
SYMATTR InstName C1
SYMATTR Value 1000u
SYMBOL cap 1104 240 R0
SYMATTR InstName C3
SYMATTR Value 10u
SYMBOL PowerProducts\\LT1084-5 944 80 R0
SYMATTR InstName U1
SYMBOL cap 1200 240 R0
SYMATTR InstName C4
SYMATTR Value 10n
SYMBOL res 1312 176 R0
SYMATTR InstName R3
SYMATTR Value 100
SYMBOL cap 688 272 R0
SYMATTR InstName C2
SYMATTR Value 1000u
TEXT -424 320 Left 2 !.tran 0 1 0.00001
TEXT -560 8 Left 2 !.include regulators.lib
TEXT -160 408 Left 2 !.step param X list 8.48 11.31 12.72
