Version 4
SHEET 1 1384 692
WIRE 416 -144 96 -144
WIRE 96 -80 96 -144
WIRE 48 0 -240 0
WIRE -128 32 -384 32
WIRE 96 32 96 16
WIRE 96 32 -64 32
WIRE 240 32 224 32
WIRE 496 32 240 32
WIRE -384 64 -384 32
WIRE -64 64 -64 32
WIRE -48 64 -64 64
WIRE 48 64 32 64
WIRE 880 64 688 64
WIRE 48 80 48 64
WIRE 48 80 32 80
WIRE 240 80 240 32
WIRE 240 80 48 80
WIRE 32 112 32 80
WIRE 32 112 -64 112
WIRE 96 112 96 32
WIRE 768 112 624 112
WIRE 416 128 416 -144
WIRE 688 128 688 64
WIRE 624 144 624 112
WIRE 656 144 624 144
WIRE -384 160 -384 144
WIRE -384 160 -496 160
WIRE 768 160 768 112
WIRE 768 160 720 160
WIRE -496 176 -496 160
WIRE -384 176 -384 160
WIRE 496 176 496 32
WIRE 656 176 496 176
WIRE -128 192 -128 32
WIRE -32 208 -96 208
WIRE -240 224 -240 0
WIRE -160 224 -240 224
WIRE 48 224 48 80
WIRE 688 224 688 192
WIRE 768 224 688 224
WIRE -64 240 -64 112
WIRE -64 240 -96 240
WIRE -384 272 -384 256
WIRE -128 272 -128 256
WIRE -128 272 -384 272
WIRE 880 272 880 64
WIRE 880 272 672 272
WIRE -32 320 -32 208
WIRE -32 320 -144 320
WIRE 672 320 672 272
WIRE -144 336 -144 320
WIRE 96 336 96 192
WIRE 416 336 416 208
WIRE 416 336 96 336
WIRE 880 336 880 272
WIRE 672 416 672 400
WIRE 672 416 560 416
WIRE 560 432 560 416
WIRE 672 448 672 416
WIRE -144 464 -144 416
WIRE 48 464 48 304
WIRE 48 464 -144 464
WIRE 96 464 96 336
WIRE 96 464 48 464
WIRE 96 496 96 464
WIRE 880 496 880 416
WIRE 672 608 672 528
WIRE 768 608 768 224
WIRE 768 608 672 608
FLAG 96 496 0
FLAG -496 176 0
FLAG 880 496 0
FLAG 560 432 0
SYMBOL voltage 416 112 R0
WINDOW 123 0 0 Left 0
WINDOW 39 0 0 Left 0
SYMATTR InstName V1
SYMATTR Value 35
SYMBOL voltage -144 320 R0
WINDOW 123 0 0 Left 0
WINDOW 39 0 0 Left 0
SYMATTR InstName V2
SYMATTR Value 1
SYMBOL res 80 96 R0
SYMATTR InstName R1
SYMATTR Value 2
SYMBOL voltage -384 272 R180
WINDOW 123 0 0 Left 0
WINDOW 39 0 0 Left 0
SYMATTR InstName V3
SYMATTR Value 35
SYMBOL res 48 48 R90
WINDOW 0 0 56 VBottom 2
WINDOW 3 32 56 VTop 2
SYMATTR InstName R2
SYMATTR Value 2000k
SYMBOL nmos 48 -80 R0
SYMATTR InstName M2
SYMATTR Value IPB081N06L3
SYMBOL res 64 320 R180
WINDOW 0 36 76 Left 2
WINDOW 3 36 40 Left 2
SYMATTR InstName R3
SYMATTR Value 825k
SYMBOL Opamps\\AD8675 -128 288 R180
SYMATTR InstName U1
SYMBOL Opamps\\AD8675 688 96 R0
SYMATTR InstName U2
SYMBOL voltage 880 320 R0
WINDOW 123 0 0 Left 0
WINDOW 39 0 0 Left 0
SYMATTR InstName V4
SYMATTR Value 30
SYMBOL res 688 416 R180
WINDOW 0 36 76 Left 2
WINDOW 3 36 40 Left 2
SYMATTR InstName R4
SYMATTR Value 11k
SYMBOL res 688 544 R180
WINDOW 0 36 76 Left 2
WINDOW 3 36 40 Left 2
SYMATTR InstName R7
SYMATTR Value 11k
SYMBOL voltage -384 48 R0
WINDOW 123 0 0 Left 0
WINDOW 39 0 0 Left 0
SYMATTR InstName V5
SYMATTR Value 0
TEXT -240 520 Left 2 !.dc V2 0 5 0.5
