Version 4
SHEET 1 1380 680
WIRE 416 -144 96 -144
WIRE 96 -80 96 -144
WIRE -144 0 -240 0
WIRE 48 0 -64 0
WIRE 96 32 96 16
WIRE 96 32 -64 32
WIRE -64 64 -64 32
WIRE -48 64 -64 64
WIRE 48 64 32 64
WIRE 48 80 48 64
WIRE 48 80 32 80
WIRE 32 112 32 80
WIRE 32 112 -64 112
WIRE 96 112 96 32
WIRE 992 112 720 112
WIRE -128 128 -320 128
WIRE 416 128 416 -144
WIRE -272 160 -384 160
WIRE 816 160 656 160
WIRE 992 160 992 112
WIRE -384 176 -384 160
WIRE -128 192 -128 128
WIRE -32 208 -96 208
WIRE 720 208 720 112
WIRE -240 224 -240 0
WIRE -160 224 -240 224
WIRE 48 224 48 80
WIRE 656 224 656 160
WIRE 688 224 656 224
WIRE -64 240 -64 112
WIRE -64 240 -96 240
WIRE 816 240 816 160
WIRE 816 240 752 240
WIRE -64 256 -64 240
WIRE 688 256 -64 256
WIRE -384 272 -384 256
WIRE -320 272 -320 128
WIRE -320 272 -384 272
WIRE -272 272 -272 160
WIRE -128 272 -128 256
WIRE -128 272 -272 272
WIRE -32 320 -32 208
WIRE -32 320 -144 320
WIRE -144 336 -144 320
WIRE 96 336 96 192
WIRE 416 336 416 208
WIRE 416 336 96 336
WIRE 720 336 720 272
WIRE 992 336 992 240
WIRE 992 336 720 336
WIRE -144 464 -144 416
WIRE 48 464 48 304
WIRE 48 464 -144 464
WIRE 96 464 96 336
WIRE 96 464 48 464
WIRE 96 496 96 464
FLAG 96 496 0
SYMBOL voltage 416 112 R0
WINDOW 123 0 0 Left 0
WINDOW 39 0 0 Left 0
SYMATTR InstName V1
SYMATTR Value 1
SYMBOL voltage -144 320 R0
WINDOW 123 0 0 Left 0
WINDOW 39 0 0 Left 0
SYMATTR InstName V2
SYMATTR Value 1
SYMBOL res 80 96 R0
SYMATTR InstName R1
SYMATTR Value 2
SYMBOL voltage -384 160 R0
WINDOW 123 0 0 Left 0
WINDOW 39 0 0 Left 0
SYMATTR InstName V3
SYMATTR Value 30
SYMBOL res 48 48 R90
WINDOW 0 0 56 VBottom 2
WINDOW 3 32 56 VTop 2
SYMATTR InstName R2
SYMATTR Value 2000k
SYMBOL res -48 -16 R90
WINDOW 0 0 56 VBottom 2
WINDOW 3 32 56 VTop 2
SYMATTR InstName R4
SYMATTR Value 1000
SYMBOL Opamps\\UniversalOpamp2 -128 224 R180
SYMATTR InstName U2
SYMBOL nmos 48 -80 R0
SYMATTR InstName M2
SYMATTR Value IPB075N04L
SYMBOL res 64 320 R180
WINDOW 0 36 76 Left 2
WINDOW 3 36 40 Left 2
SYMATTR InstName R3
SYMATTR Value 1000k
SYMBOL Opamps\\UniversalOpamp2 720 240 R0
SYMATTR InstName U1
SYMBOL voltage 992 144 R0
WINDOW 123 0 0 Left 0
WINDOW 39 0 0 Left 0
SYMATTR InstName V4
SYMATTR Value 35
TEXT -240 520 Left 2 !.dc V2 0 5 .1
