Version 4
SHEET 1 880 680
WIRE 448 -48 192 -48
WIRE 448 0 448 -48
WIRE 448 96 448 80
WIRE 192 112 192 -48
WIRE 160 128 96 128
WIRE 304 144 224 144
WIRE 160 160 -256 160
WIRE -256 240 -256 160
WIRE 96 256 96 128
WIRE 160 256 96 256
WIRE 304 256 304 144
WIRE 304 256 240 256
WIRE 96 288 96 256
WIRE -256 352 -256 320
WIRE 96 400 96 368
WIRE 192 400 192 176
FLAG 96 400 0
FLAG 192 400 0
FLAG -256 352 0
FLAG 448 96 0
SYMBOL Opamps\\AD824 192 80 R0
SYMATTR InstName U1
SYMBOL res 80 272 R0
SYMATTR InstName R1
SYMATTR Value 1k
SYMBOL res 256 240 R90
WINDOW 0 0 56 VBottom 2
WINDOW 3 32 56 VTop 2
SYMATTR InstName R2
SYMATTR Value 5k
SYMBOL voltage -256 224 R0
WINDOW 123 0 0 Left 0
WINDOW 39 0 0 Left 0
SYMATTR InstName V1
SYMATTR Value 3
SYMBOL voltage 448 -16 R0
WINDOW 123 0 0 Left 0
WINDOW 39 0 0 Left 0
SYMATTR InstName V2
SYMATTR Value 30
TEXT -288 424 Left 2 !.dc V1 0 5 0.25
