Version 4
SHEET 1 3340 1024
WIRE 1024 0 608 0
WIRE 512 48 48 48
WIRE 912 48 896 48
WIRE 1024 48 1024 0
WIRE 1024 48 976 48
WIRE 1072 48 1024 48
WIRE 1184 48 1136 48
WIRE 512 64 512 48
WIRE 608 64 608 0
WIRE 1184 64 1184 48
WIRE 1280 64 1184 64
WIRE 1408 64 1280 64
WIRE 1568 64 1408 64
WIRE 48 96 48 48
WIRE 896 96 896 48
WIRE 1024 96 896 96
WIRE 1568 96 1568 64
WIRE 896 144 896 96
WIRE 912 144 896 144
WIRE 1008 144 976 144
WIRE 1072 144 1008 144
WIRE 1184 144 1184 64
WIRE 1184 144 1136 144
WIRE 1280 144 1280 64
WIRE 1408 144 1408 64
WIRE 608 192 608 144
WIRE 1008 192 1008 144
WIRE 1008 192 608 192
WIRE 48 208 48 176
WIRE 240 208 48 208
WIRE 544 224 544 -16
WIRE 576 224 576 -16
WIRE 1280 224 1280 208
WIRE 1408 224 1408 208
WIRE 1408 224 1280 224
WIRE 1568 224 1568 176
WIRE 1568 224 1408 224
WIRE 240 240 240 208
WIRE 512 240 512 144
WIRE 512 240 240 240
WIRE 1024 256 1024 96
WIRE 1280 256 1280 224
FLAG 1024 256 0
FLAG 1280 256 0
SYMBOL voltage 48 -96 R0
WINDOW 123 0 0 Left 0
WINDOW 39 24 124 Left 2
SYMATTR SpiceLine Rser=23m
SYMATTR InstName V1
SYMATTR Value SINE(0 328 50 0.1 0 0 50)
SYMBOL ind2 496 160 M180
WINDOW 0 -37 77 Left 2
WINDOW 3 -66 31 Left 2
SYMATTR InstName L2
SYMATTR Value 10m
SYMATTR Type ind
SYMATTR SpiceLine Rser=2.5
SYMBOL ind2 624 160 R180
WINDOW 0 36 80 Left 2
WINDOW 3 36 40 Left 2
SYMATTR InstName L3
SYMATTR Value 172u4
SYMATTR Type ind
SYMATTR SpiceLine Rser=0.12
SYMBOL polcap 1264 144 R0
WINDOW 3 24 56 Left 2
SYMATTR Value 10000u
SYMATTR InstName C4
SYMATTR SpiceLine V=35 Rser=0.033 Lser=0
SYMATTR Description Capacitor
SYMATTR Type cap
SYMBOL polcap 1392 144 R0
WINDOW 3 24 56 Left 2
SYMATTR Value 10000u
SYMATTR InstName C2
SYMATTR SpiceLine V=35 Rser=0.033 Lser=0
SYMATTR Description Capacitor
SYMATTR Type cap
SYMBOL schottky 1072 64 R270
WINDOW 0 32 32 VTop 2
WINDOW 3 0 32 VBottom 2
SYMATTR InstName D1
SYMATTR Value MBRB2545CT
SYMATTR Description Diode
SYMATTR Type diode
SYMBOL schottky 1072 160 R270
WINDOW 0 32 32 VTop 2
WINDOW 3 0 32 VBottom 2
SYMATTR InstName D2
SYMATTR Value MBRB2545CT
SYMATTR Description Diode
SYMATTR Type diode
SYMBOL schottky 912 160 R270
WINDOW 0 32 32 VTop 2
WINDOW 3 0 32 VBottom 2
SYMATTR InstName D3
SYMATTR Value MBRB2545CT
SYMATTR Description Diode
SYMATTR Type diode
SYMBOL schottky 912 64 R270
WINDOW 0 32 32 VTop 2
WINDOW 3 0 32 VBottom 2
SYMATTR InstName D4
SYMATTR Value MBRB2545CT
SYMATTR Description Diode
SYMATTR Type diode
SYMBOL res 1552 80 R0
SYMATTR InstName R1
SYMATTR Value 100
SYMBOL Misc\\battery 48 80 R0
WINDOW 123 0 0 Left 0
WINDOW 39 24 132 Left 2
SYMATTR InstName V2
SYMATTR Value SINE(0 328 50 0.2 0 0 50)
TEXT 304 264 Left 2 !.tran 10 startup
TEXT 496 -56 Left 2 !K1 L2 L3 1
TEXT 192 856 Left 2 ;L1/L2 = (N1/N2)^2\n85 = 9.2\nKEEP V+ A LOT HIGHER THAN spec'ed output: 30VAC
TEXT 976 416 Left 2 !;STEP V2 2 3 0.5
TEXT 504 448 Left 2 !;step param X 20001m 1m -20
